Test_Network/condensed/network_18/Generators.txt
New Generator.GEN11 Bus1=1119.2 kV=0.213 kW=0 PF=1
New Generator.GEN12 Bus1=1203.3 kV=0.213 kW=0 PF=1
New Generator.GEN13 Bus1=1214.3 kV=0.213 kW=0 PF=1
New Generator.GEN14 Bus1=1230.1 kV=0.213 kW=0 PF=1
New Generator.GEN15 Bus1=1270.2 kV=0.213 kW=0 PF=1
New Generator.GEN16 Bus1=1315.2 kV=0.213 kW=0 PF=1
New Generator.GEN17 Bus1=1378.2 kV=0.213 kW=0 PF=1
New Generator.GEN18 Bus1=1401.3 kV=0.213 kW=0 PF=1
New Generator.GEN19 Bus1=1415.1 kV=0.213 kW=0 PF=1
New Generator.GEN110 Bus1=1450.3 kV=0.213 kW=0 PF=1
New Generator.GEN111 Bus1=1457.2 kV=0.213 kW=0 PF=1
New Generator.GEN112 Bus1=1491.1 kV=0.213 kW=0 PF=1
New Generator.GEN113 Bus1=1526.1 kV=0.213 kW=0 PF=1
New Generator.GEN114 Bus1=1591.3 kV=0.213 kW=0 PF=1
New Generator.GEN115 Bus1=1682.3 kV=0.213 kW=0 PF=1
New Generator.GEN116 Bus1=1710.2 kV=0.213 kW=0 PF=1
New Generator.GEN117 Bus1=1799.3 kV=0.213 kW=0 PF=1
New Generator.GEN118 Bus1=1819.1 kV=0.213 kW=0 PF=1
New Generator.GEN119 Bus1=1821.2 kV=0.213 kW=0 PF=1
New Generator.GEN120 Bus1=1884.1 kV=0.213 kW=0 PF=1
New Generator.GEN121 Bus1=1896.3 kV=0.213 kW=0 PF=1
New Generator.GEN122 Bus1=1918.3 kV=0.213 kW=0 PF=1
New Generator.GEN123 Bus1=1954.1 kV=0.213 kW=0 PF=1
New Generator.GEN124 Bus1=1960.1 kV=0.213 kW=0 PF=1
New Generator.GEN125 Bus1=1966.2 kV=0.213 kW=0 PF=1
New Generator.GEN126 Bus1=1982.3 kV=0.213 kW=0 PF=1
New Generator.GEN127 Bus1=11000.3 kV=0.213 kW=0 PF=1
New Generator.GEN128 Bus1=11058.3 kV=0.213 kW=0 PF=1
New Generator.GEN129 Bus1=11089.2 kV=0.213 kW=0 PF=1
New Generator.GEN130 Bus1=11097.2 kV=0.213 kW=0 PF=1
New Generator.GEN131 Bus1=11099.1 kV=0.213 kW=0 PF=1
New Generator.GEN132 Bus1=11105.3 kV=0.213 kW=0 PF=1
New Generator.GEN133 Bus1=11133.1 kV=0.213 kW=0 PF=1
New Generator.GEN134 Bus1=11154.3 kV=0.213 kW=0 PF=1
New Generator.GEN135 Bus1=11174.3 kV=0.213 kW=0 PF=1
New Generator.GEN136 Bus1=11187.2 kV=0.213 kW=0 PF=1
New Generator.GEN137 Bus1=11229.1 kV=0.213 kW=0 PF=1
New Generator.GEN138 Bus1=11257.3 kV=0.213 kW=0 PF=1
New Generator.GEN139 Bus1=11267.2 kV=0.213 kW=0 PF=1
New Generator.GEN140 Bus1=11300.3 kV=0.213 kW=0 PF=1
New Generator.GEN141 Bus1=11307.3 kV=0.213 kW=0 PF=1
New Generator.GEN142 Bus1=11308.1 kV=0.213 kW=0 PF=1
New Generator.GEN143 Bus1=11311.1 kV=0.213 kW=0 PF=1
New Generator.GEN144 Bus1=11314.2 kV=0.213 kW=0 PF=1
New Generator.GEN145 Bus1=11315.3 kV=0.213 kW=0 PF=1
New Generator.GEN146 Bus1=11320.1 kV=0.213 kW=0 PF=1
New Generator.GEN147 Bus1=11326.2 kV=0.213 kW=0 PF=1
New Generator.GEN148 Bus1=11327.1 kV=0.213 kW=0 PF=1
New Generator.GEN149 Bus1=11329.2 kV=0.213 kW=0 PF=1
New Generator.GEN150 Bus1=11346.3 kV=0.213 kW=0 PF=1
New Generator.GEN151 Bus1=11357.2 kV=0.213 kW=0 PF=1
New Generator.GEN152 Bus1=11391.2 kV=0.213 kW=0 PF=1
New Generator.GEN153 Bus1=11394.1 kV=0.213 kW=0 PF=1
New Generator.GEN154 Bus1=11401.3 kV=0.213 kW=0 PF=1
New Generator.GEN155 Bus1=11407.3 kV=0.213 kW=0 PF=1
New Generator.GEN156 Bus1=11408.2 kV=0.213 kW=0 PF=1
New Generator.GEN21 Bus1=271.2 kV=0.213 kW=0 PF=1
New Generator.GEN22 Bus1=2196.3 kV=0.213 kW=0 PF=1
New Generator.GEN23 Bus1=2239.2 kV=0.213 kW=0 PF=1
New Generator.GEN24 Bus1=2314.3 kV=0.213 kW=0 PF=1
New Generator.GEN25 Bus1=2405.3 kV=0.213 kW=0 PF=1
New Generator.GEN26 Bus1=2514.2 kV=0.213 kW=0 PF=1
New Generator.GEN27 Bus1=2606.3 kV=0.213 kW=0 PF=1
New Generator.GEN28 Bus1=2614.2 kV=0.213 kW=0 PF=1
New Generator.GEN29 Bus1=2712.1 kV=0.213 kW=0 PF=1
New Generator.GEN210 Bus1=2747.1 kV=0.213 kW=0 PF=1
New Generator.GEN211 Bus1=2762.3 kV=0.213 kW=0 PF=1
New Generator.GEN212 Bus1=2780.1 kV=0.213 kW=0 PF=1
New Generator.GEN213 Bus1=2791.2 kV=0.213 kW=0 PF=1
New Generator.GEN214 Bus1=2843.3 kV=0.213 kW=0 PF=1
New Generator.GEN215 Bus1=2849.1 kV=0.213 kW=0 PF=1
New Generator.GEN216 Bus1=2898.3 kV=0.213 kW=0 PF=1
New Generator.GEN217 Bus1=2908.2 kV=0.213 kW=0 PF=1
New Generator.GEN218 Bus1=2909.2 kV=0.213 kW=0 PF=1
New Generator.GEN219 Bus1=2920.2 kV=0.213 kW=0 PF=1
New Generator.GEN220 Bus1=2938.3 kV=0.213 kW=0 PF=1
New Generator.GEN221 Bus1=2975.3 kV=0.213 kW=0 PF=1
New Generator.GEN222 Bus1=2982.2 kV=0.213 kW=0 PF=1
New Generator.GEN223 Bus1=2984.3 kV=0.213 kW=0 PF=1
New Generator.GEN224 Bus1=2990.2 kV=0.213 kW=0 PF=1
New Generator.GEN31 Bus1=3225.3 kV=0.213 kW=0 PF=1
New Generator.GEN32 Bus1=3254.3 kV=0.213 kW=0 PF=1
New Generator.GEN33 Bus1=3261.1 kV=0.213 kW=0 PF=1
New Generator.GEN34 Bus1=3328.2 kV=0.213 kW=0 PF=1
New Generator.GEN35 Bus1=3340.2 kV=0.213 kW=0 PF=1
New Generator.GEN36 Bus1=3361.2 kV=0.213 kW=0 PF=1
New Generator.GEN37 Bus1=3424.2 kV=0.213 kW=0 PF=1
New Generator.GEN38 Bus1=3426.3 kV=0.213 kW=0 PF=1
New Generator.GEN39 Bus1=3560.3 kV=0.213 kW=0 PF=1
New Generator.GEN310 Bus1=3595.2 kV=0.213 kW=0 PF=1
New Generator.GEN311 Bus1=3601.1 kV=0.213 kW=0 PF=1
New Generator.GEN312 Bus1=3614.1 kV=0.213 kW=0 PF=1
New Generator.GEN313 Bus1=3631.3 kV=0.213 kW=0 PF=1
New Generator.GEN314 Bus1=3642.3 kV=0.213 kW=0 PF=1
New Generator.GEN315 Bus1=3648.2 kV=0.213 kW=0 PF=1
New Generator.GEN316 Bus1=3690.3 kV=0.213 kW=0 PF=1
New Generator.GEN317 Bus1=3701.1 kV=0.213 kW=0 PF=1
New Generator.GEN318 Bus1=3713.1 kV=0.213 kW=0 PF=1
New Generator.GEN319 Bus1=3719.1 kV=0.213 kW=0 PF=1
New Generator.GEN320 Bus1=3722.2 kV=0.213 kW=0 PF=1
New Generator.GEN321 Bus1=3738.1 kV=0.213 kW=0 PF=1
New Generator.GEN322 Bus1=3751.2 kV=0.213 kW=0 PF=1
New Generator.GEN323 Bus1=3785.3 kV=0.213 kW=0 PF=1
New Generator.GEN324 Bus1=3808.2 kV=0.213 kW=0 PF=1
New Generator.GEN325 Bus1=3810.1 kV=0.213 kW=0 PF=1
New Generator.GEN326 Bus1=3882.3 kV=0.213 kW=0 PF=1
New Generator.GEN327 Bus1=3905.2 kV=0.213 kW=0 PF=1
New Generator.GEN328 Bus1=3914.1 kV=0.213 kW=0 PF=1
New Generator.GEN329 Bus1=3925.2 kV=0.213 kW=0 PF=1
New Generator.GEN330 Bus1=3933.1 kV=0.213 kW=0 PF=1
New Generator.GEN331 Bus1=3950.1 kV=0.213 kW=0 PF=1
New Generator.GEN332 Bus1=3985.3 kV=0.213 kW=0 PF=1
New Generator.GEN333 Bus1=3991.2 kV=0.213 kW=0 PF=1
New Generator.GEN334 Bus1=31001.2 kV=0.213 kW=0 PF=1
New Generator.GEN335 Bus1=31063.3 kV=0.213 kW=0 PF=1
New Generator.GEN336 Bus1=31070.3 kV=0.213 kW=0 PF=1
New Generator.GEN337 Bus1=31078.3 kV=0.213 kW=0 PF=1
New Generator.GEN338 Bus1=31083.2 kV=0.213 kW=0 PF=1
New Generator.GEN339 Bus1=31084.3 kV=0.213 kW=0 PF=1
New Generator.GEN340 Bus1=31086.3 kV=0.213 kW=0 PF=1
New Generator.GEN341 Bus1=31094.3 kV=0.213 kW=0 PF=1
New Generator.GEN342 Bus1=31111.1 kV=0.213 kW=0 PF=1
New Generator.GEN343 Bus1=31188.3 kV=0.213 kW=0 PF=1
New Generator.GEN344 Bus1=31192.3 kV=0.213 kW=0 PF=1
New Generator.GEN345 Bus1=31209.1 kV=0.213 kW=0 PF=1
New Generator.GEN346 Bus1=31350.3 kV=0.213 kW=0 PF=1
New Generator.GEN347 Bus1=31362.2 kV=0.213 kW=0 PF=1
New Generator.GEN348 Bus1=31428.2 kV=0.213 kW=0 PF=1
New Generator.GEN349 Bus1=31452.2 kV=0.213 kW=0 PF=1
New Generator.GEN350 Bus1=31456.1 kV=0.213 kW=0 PF=1
New Generator.GEN351 Bus1=31490.1 kV=0.213 kW=0 PF=1
New Generator.GEN41 Bus1=483.1 kV=0.213 kW=0 PF=1
New Generator.GEN42 Bus1=4118.1 kV=0.213 kW=0 PF=1
New Generator.GEN43 Bus1=4179.3 kV=0.213 kW=0 PF=1
New Generator.GEN44 Bus1=4180.2 kV=0.213 kW=0 PF=1
New Generator.GEN45 Bus1=4215.3 kV=0.213 kW=0 PF=1
New Generator.GEN46 Bus1=4278.3 kV=0.213 kW=0 PF=1
New Generator.GEN47 Bus1=4309.1 kV=0.213 kW=0 PF=1
New Generator.GEN48 Bus1=4353.1 kV=0.213 kW=0 PF=1
New Generator.GEN49 Bus1=4425.3 kV=0.213 kW=0 PF=1
New Generator.GEN410 Bus1=4467.2 kV=0.213 kW=0 PF=1
New Generator.GEN411 Bus1=4495.1 kV=0.213 kW=0 PF=1
New Generator.GEN412 Bus1=4497.1 kV=0.213 kW=0 PF=1
New Generator.GEN413 Bus1=4547.2 kV=0.213 kW=0 PF=1
New Generator.GEN414 Bus1=4591.3 kV=0.213 kW=0 PF=1
New Generator.GEN415 Bus1=4617.1 kV=0.213 kW=0 PF=1
New Generator.GEN416 Bus1=4624.2 kV=0.213 kW=0 PF=1
New Generator.GEN417 Bus1=4721.2 kV=0.213 kW=0 PF=1
New Generator.GEN418 Bus1=4731.3 kV=0.213 kW=0 PF=1
New Generator.GEN419 Bus1=4749.1 kV=0.213 kW=0 PF=1
New Generator.GEN420 Bus1=4845.2 kV=0.213 kW=0 PF=1
New Generator.GEN421 Bus1=4894.3 kV=0.213 kW=0 PF=1
New Generator.GEN422 Bus1=4912.1 kV=0.213 kW=0 PF=1
New Generator.GEN423 Bus1=4936.3 kV=0.213 kW=0 PF=1
New Generator.GEN424 Bus1=4942.2 kV=0.213 kW=0 PF=1
New Generator.GEN425 Bus1=4979.3 kV=0.213 kW=0 PF=1
New Generator.GEN426 Bus1=4994.1 kV=0.213 kW=0 PF=1
New Generator.GEN427 Bus1=41016.2 kV=0.213 kW=0 PF=1
New Generator.GEN428 Bus1=41075.3 kV=0.213 kW=0 PF=1
New Generator.GEN429 Bus1=41083.1 kV=0.213 kW=0 PF=1
New Generator.GEN430 Bus1=41091.3 kV=0.213 kW=0 PF=1
New Generator.GEN431 Bus1=41112.2 kV=0.213 kW=0 PF=1
New Generator.GEN432 Bus1=41116.2 kV=0.213 kW=0 PF=1
New Generator.GEN433 Bus1=41157.3 kV=0.213 kW=0 PF=1
New Generator.GEN434 Bus1=41162.2 kV=0.213 kW=0 PF=1
New Generator.GEN51 Bus1=538.3 kV=0.213 kW=0 PF=1
New Generator.GEN52 Bus1=540.3 kV=0.213 kW=0 PF=1
New Generator.GEN53 Bus1=597.2 kV=0.213 kW=0 PF=1
New Generator.GEN54 Bus1=5104.3 kV=0.213 kW=0 PF=1
New Generator.GEN55 Bus1=5111.3 kV=0.213 kW=0 PF=1
New Generator.GEN56 Bus1=5112.2 kV=0.213 kW=0 PF=1
New Generator.GEN57 Bus1=5162.1 kV=0.213 kW=0 PF=1
New Generator.GEN58 Bus1=5184.1 kV=0.213 kW=0 PF=1
New Generator.GEN59 Bus1=5221.3 kV=0.213 kW=0 PF=1
New Generator.GEN510 Bus1=5232.1 kV=0.213 kW=0 PF=1
New Generator.GEN511 Bus1=5353.1 kV=0.213 kW=0 PF=1
New Generator.GEN512 Bus1=5368.1 kV=0.213 kW=0 PF=1
New Generator.GEN513 Bus1=5416.2 kV=0.213 kW=0 PF=1
New Generator.GEN514 Bus1=5471.3 kV=0.213 kW=0 PF=1
New Generator.GEN515 Bus1=5495.3 kV=0.213 kW=0 PF=1
New Generator.GEN516 Bus1=5497.3 kV=0.213 kW=0 PF=1
New Generator.GEN517 Bus1=5516.3 kV=0.213 kW=0 PF=1
New Generator.GEN518 Bus1=5581.2 kV=0.213 kW=0 PF=1
New Generator.GEN519 Bus1=5602.3 kV=0.213 kW=0 PF=1
New Generator.GEN520 Bus1=5610.2 kV=0.213 kW=0 PF=1
New Generator.GEN521 Bus1=5670.1 kV=0.213 kW=0 PF=1
New Generator.GEN522 Bus1=5677.3 kV=0.213 kW=0 PF=1
New Generator.GEN523 Bus1=5726.3 kV=0.213 kW=0 PF=1
New Generator.GEN524 Bus1=5729.2 kV=0.213 kW=0 PF=1
New Generator.GEN525 Bus1=5773.2 kV=0.213 kW=0 PF=1
New Generator.GEN526 Bus1=5799.3 kV=0.213 kW=0 PF=1
New Generator.GEN527 Bus1=5819.2 kV=0.213 kW=0 PF=1
New Generator.GEN528 Bus1=5841.2 kV=0.213 kW=0 PF=1
New Generator.GEN529 Bus1=5847.2 kV=0.213 kW=0 PF=1
New Generator.GEN530 Bus1=5849.3 kV=0.213 kW=0 PF=1
New Generator.GEN531 Bus1=5852.3 kV=0.213 kW=0 PF=1
New Generator.GEN532 Bus1=5854.3 kV=0.213 kW=0 PF=1
New Generator.GEN533 Bus1=5864.1 kV=0.213 kW=0 PF=1
New Generator.GEN534 Bus1=5882.2 kV=0.213 kW=0 PF=1
New Generator.GEN535 Bus1=5894.1 kV=0.213 kW=0 PF=1
New Generator.GEN536 Bus1=5897.2 kV=0.213 kW=0 PF=1
New Generator.GEN537 Bus1=5936.2 kV=0.213 kW=0 PF=1
New Generator.GEN538 Bus1=5948.3 kV=0.213 kW=0 PF=1
New Generator.GEN539 Bus1=5953.1 kV=0.213 kW=0 PF=1
New Generator.GEN540 Bus1=5964.3 kV=0.213 kW=0 PF=1
New Generator.GEN541 Bus1=5976.1 kV=0.213 kW=0 PF=1
New Generator.GEN542 Bus1=5983.1 kV=0.213 kW=0 PF=1
New Generator.GEN61 Bus1=6122.2 kV=0.213 kW=0 PF=1
New Generator.GEN62 Bus1=6124.3 kV=0.213 kW=0 PF=1
New Generator.GEN63 Bus1=6215.2 kV=0.213 kW=0 PF=1
New Generator.GEN64 Bus1=6237.3 kV=0.213 kW=0 PF=1
New Generator.GEN65 Bus1=6272.3 kV=0.213 kW=0 PF=1
New Generator.GEN66 Bus1=6274.3 kV=0.213 kW=0 PF=1
New Generator.GEN67 Bus1=6382.3 kV=0.213 kW=0 PF=1
New Generator.GEN68 Bus1=6389.1 kV=0.213 kW=0 PF=1
New Generator.GEN69 Bus1=6392.1 kV=0.213 kW=0 PF=1
New Generator.GEN610 Bus1=6399.1 kV=0.213 kW=0 PF=1
New Generator.GEN611 Bus1=6422.2 kV=0.213 kW=0 PF=1
New Generator.GEN612 Bus1=6433.3 kV=0.213 kW=0 PF=1
New Generator.GEN613 Bus1=6442.3 kV=0.213 kW=0 PF=1
New Generator.GEN614 Bus1=6461.2 kV=0.213 kW=0 PF=1
New Generator.GEN615 Bus1=6473.1 kV=0.213 kW=0 PF=1
New Generator.GEN616 Bus1=6477.3 kV=0.213 kW=0 PF=1
New Generator.GEN617 Bus1=6481.2 kV=0.213 kW=0 PF=1
New Generator.GEN618 Bus1=6491.1 kV=0.213 kW=0 PF=1
New Generator.GEN619 Bus1=6503.3 kV=0.213 kW=0 PF=1
New Generator.GEN620 Bus1=6509.3 kV=0.213 kW=0 PF=1
New Generator.GEN621 Bus1=6528.2 kV=0.213 kW=0 PF=1
New Generator.GEN622 Bus1=6531.3 kV=0.213 kW=0 PF=1
New Generator.GEN71 Bus1=745.1 kV=0.213 kW=0 PF=1
New Generator.GEN72 Bus1=7141.2 kV=0.213 kW=0 PF=1
New Generator.GEN73 Bus1=7143.3 kV=0.213 kW=0 PF=1
New Generator.GEN74 Bus1=7164.3 kV=0.213 kW=0 PF=1
New Generator.GEN75 Bus1=7166.3 kV=0.213 kW=0 PF=1
New Generator.GEN76 Bus1=7187.1 kV=0.213 kW=0 PF=1
New Generator.GEN77 Bus1=7264.3 kV=0.213 kW=0 PF=1
New Generator.GEN78 Bus1=7328.1 kV=0.213 kW=0 PF=1
New Generator.GEN79 Bus1=7342.3 kV=0.213 kW=0 PF=1
New Generator.GEN710 Bus1=7370.3 kV=0.213 kW=0 PF=1
New Generator.GEN711 Bus1=7382.2 kV=0.213 kW=0 PF=1
New Generator.GEN712 Bus1=7391.1 kV=0.213 kW=0 PF=1
New Generator.GEN713 Bus1=7402.2 kV=0.213 kW=0 PF=1
New Generator.GEN714 Bus1=7411.2 kV=0.213 kW=0 PF=1
New Generator.GEN715 Bus1=7447.1 kV=0.213 kW=0 PF=1
New Generator.GEN716 Bus1=7503.2 kV=0.213 kW=0 PF=1
New Generator.GEN717 Bus1=7508.2 kV=0.213 kW=0 PF=1
New Generator.GEN718 Bus1=7516.2 kV=0.213 kW=0 PF=1
New Generator.GEN719 Bus1=7526.1 kV=0.213 kW=0 PF=1
New Generator.GEN720 Bus1=7528.2 kV=0.213 kW=0 PF=1
New Generator.GEN721 Bus1=7542.1 kV=0.213 kW=0 PF=1
New Generator.GEN722 Bus1=7555.3 kV=0.213 kW=0 PF=1
New Generator.GEN723 Bus1=7561.3 kV=0.213 kW=0 PF=1
New Generator.GEN724 Bus1=7564.1 kV=0.213 kW=0 PF=1
New Generator.GEN725 Bus1=7585.3 kV=0.213 kW=0 PF=1
New Generator.GEN726 Bus1=7616.1 kV=0.213 kW=0 PF=1
New Generator.GEN727 Bus1=7631.1 kV=0.213 kW=0 PF=1
New Generator.GEN728 Bus1=7635.3 kV=0.213 kW=0 PF=1
New Generator.GEN81 Bus1=879.1 kV=0.213 kW=0 PF=1
New Generator.GEN82 Bus1=8129.2 kV=0.213 kW=0 PF=1
New Generator.GEN83 Bus1=8137.2 kV=0.213 kW=0 PF=1
New Generator.GEN84 Bus1=8158.1 kV=0.213 kW=0 PF=1
New Generator.GEN85 Bus1=8201.3 kV=0.213 kW=0 PF=1
New Generator.GEN86 Bus1=8209.2 kV=0.213 kW=0 PF=1
New Generator.GEN87 Bus1=8229.2 kV=0.213 kW=0 PF=1
New Generator.GEN88 Bus1=8241.3 kV=0.213 kW=0 PF=1
New Generator.GEN89 Bus1=8249.1 kV=0.213 kW=0 PF=1
New Generator.GEN810 Bus1=8255.1 kV=0.213 kW=0 PF=1
New Generator.GEN811 Bus1=8283.3 kV=0.213 kW=0 PF=1
New Generator.GEN812 Bus1=8305.2 kV=0.213 kW=0 PF=1
New Generator.GEN813 Bus1=8312.2 kV=0.213 kW=0 PF=1
New Generator.GEN814 Bus1=8318.3 kV=0.213 kW=0 PF=1
New Generator.GEN815 Bus1=8320.2 kV=0.213 kW=0 PF=1
New Generator.GEN816 Bus1=8326.2 kV=0.213 kW=0 PF=1
New Generator.GEN817 Bus1=8331.2 kV=0.213 kW=0 PF=1
New Generator.GEN818 Bus1=8333.3 kV=0.213 kW=0 PF=1
New Generator.GEN819 Bus1=8340.1 kV=0.213 kW=0 PF=1
New Generator.GEN820 Bus1=8345.2 kV=0.213 kW=0 PF=1
New Generator.GEN821 Bus1=8347.3 kV=0.213 kW=0 PF=1
New Generator.GEN91 Bus1=9130.3 kV=0.213 kW=0 PF=1
New Generator.GEN92 Bus1=9163.1 kV=0.213 kW=0 PF=1
New Generator.GEN93 Bus1=9179.3 kV=0.213 kW=0 PF=1
New Generator.GEN94 Bus1=9273.3 kV=0.213 kW=0 PF=1
New Generator.GEN95 Bus1=9295.2 kV=0.213 kW=0 PF=1
New Generator.GEN96 Bus1=9298.1 kV=0.213 kW=0 PF=1
New Generator.GEN97 Bus1=9333.1 kV=0.213 kW=0 PF=1
New Generator.GEN98 Bus1=9361.2 kV=0.213 kW=0 PF=1
New Generator.GEN99 Bus1=9363.3 kV=0.213 kW=0 PF=1
New Generator.GEN910 Bus1=9372.2 kV=0.213 kW=0 PF=1
New Generator.GEN911 Bus1=9401.1 kV=0.213 kW=0 PF=1
New Generator.GEN912 Bus1=9403.1 kV=0.213 kW=0 PF=1
New Generator.GEN913 Bus1=9417.1 kV=0.213 kW=0 PF=1
New Generator.GEN914 Bus1=9434.3 kV=0.213 kW=0 PF=1
New Generator.GEN915 Bus1=9453.1 kV=0.213 kW=0 PF=1
New Generator.GEN916 Bus1=9457.1 kV=0.213 kW=0 PF=1
New Generator.GEN917 Bus1=9542.3 kV=0.213 kW=0 PF=1
New Generator.GEN918 Bus1=9566.1 kV=0.213 kW=0 PF=1
New Generator.GEN919 Bus1=9575.1 kV=0.213 kW=0 PF=1
New Generator.GEN920 Bus1=9614.3 kV=0.213 kW=0 PF=1
New Generator.GEN921 Bus1=9624.3 kV=0.213 kW=0 PF=1
New Generator.GEN922 Bus1=9630.3 kV=0.213 kW=0 PF=1
New Generator.GEN923 Bus1=9648.3 kV=0.213 kW=0 PF=1
New Generator.GEN924 Bus1=9687.3 kV=0.213 kW=0 PF=1
New Generator.GEN925 Bus1=9691.2 kV=0.213 kW=0 PF=1
New Generator.GEN926 Bus1=9695.3 kV=0.213 kW=0 PF=1
New Generator.GEN927 Bus1=9713.2 kV=0.213 kW=0 PF=1
New Generator.GEN928 Bus1=9778.3 kV=0.213 kW=0 PF=1
New Generator.GEN929 Bus1=9795.3 kV=0.213 kW=0 PF=1
New Generator.GEN930 Bus1=9801.1 kV=0.213 kW=0 PF=1
New Generator.GEN931 Bus1=9851.1 kV=0.213 kW=0 PF=1
New Generator.GEN932 Bus1=9878.3 kV=0.213 kW=0 PF=1
New Generator.GEN933 Bus1=9913.1 kV=0.213 kW=0 PF=1
New Generator.GEN934 Bus1=9952.3 kV=0.213 kW=0 PF=1
New Generator.GEN935 Bus1=9978.3 kV=0.213 kW=0 PF=1
New Generator.GEN936 Bus1=9989.3 kV=0.213 kW=0 PF=1
New Generator.GEN937 Bus1=91021.2 kV=0.213 kW=0 PF=1
New Generator.GEN938 Bus1=91041.1 kV=0.213 kW=0 PF=1
New Generator.GEN939 Bus1=91057.1 kV=0.213 kW=0 PF=1
New Generator.GEN940 Bus1=91118.3 kV=0.213 kW=0 PF=1
New Generator.GEN941 Bus1=91122.2 kV=0.213 kW=0 PF=1
New Generator.GEN942 Bus1=91131.2 kV=0.213 kW=0 PF=1
New Generator.GEN943 Bus1=91173.2 kV=0.213 kW=0 PF=1
New Generator.GEN944 Bus1=91180.1 kV=0.213 kW=0 PF=1
New Generator.GEN945 Bus1=91181.3 kV=0.213 kW=0 PF=1
New Generator.GEN946 Bus1=91182.3 kV=0.213 kW=0 PF=1
New Generator.GEN947 Bus1=91191.3 kV=0.213 kW=0 PF=1
New Generator.GEN948 Bus1=91198.3 kV=0.213 kW=0 PF=1
New Generator.GEN949 Bus1=91203.2 kV=0.213 kW=0 PF=1
New Generator.GEN950 Bus1=91205.1 kV=0.213 kW=0 PF=1
